Version 4
SHEET 1 880 680
WIRE -1008 -1216 -1072 -1216
WIRE -896 -1216 -928 -1216
WIRE -784 -1216 -816 -1216
WIRE -512 -1216 -784 -1216
WIRE -784 -1184 -784 -1216
WIRE -784 -1072 -784 -1104
WIRE -1072 -1040 -1072 -1216
WIRE -512 -1008 -512 -1216
WIRE -784 -944 -784 -992
WIRE -688 -944 -784 -944
WIRE -560 -944 -624 -944
WIRE -784 -896 -784 -944
WIRE -1072 -800 -1072 -960
WIRE -784 -800 -784 -832
WIRE -784 -800 -1072 -800
WIRE -672 -800 -784 -800
WIRE -512 -800 -512 -944
WIRE -512 -800 -672 -800
FLAG -672 -800 0
SYMBOL Misc\\DIAC -624 -976 R90
WINDOW 0 0 32 VBottom 2
WINDOW 3 64 32 VTop 2
SYMATTR InstName U1
SYMBOL Misc\\TRIAC -544 -1008 R0
SYMATTR InstName U2
SYMBOL cap -800 -896 R0
SYMATTR InstName C1
SYMATTR Value 100n
SYMBOL res -800 -1088 R0
SYMATTR InstName R1
SYMATTR Value 10k
SYMBOL res -800 -1200 R0
SYMATTR InstName R2
SYMATTR Value 100
SYMBOL res -912 -1232 R90
WINDOW 0 0 56 VBottom 2
WINDOW 3 32 56 VTop 2
SYMATTR InstName R3
SYMATTR Value 120
SYMBOL ind -800 -1232 R90
WINDOW 0 5 56 VBottom 2
WINDOW 3 32 56 VTop 2
SYMATTR InstName L1
SYMATTR Value 1m
SYMBOL voltage -1072 -1056 R0
WINDOW 123 0 0 Left 0
WINDOW 39 0 0 Left 0
SYMATTR InstName V1
SYMATTR Value SINE(0 325 50)
TEXT -1106 -776 Left 2 !.tran 0 0.1 0
TEXT -328 -1136 Left 2 !.subckt TRIAC MT2 G MT1
TEXT -328 -1104 Left 2 !.subckt DIAC T1 T2
TEXT -328 -1064 Left 2 !.ends DIAC
TEXT -320 -1032 Left 2 !.end TRIAC
